STAAD SPACE
START JOB INFORMATION
ENGINEER DATE 09-Mar-20
END JOB INFORMATION
INPUT WIDTH 79
UNIT METER KN
JOINT COORDINATES
1 0 0 0; 2 4 0 0; 3 0 0 3; 4 4 0 3; 5 0 2 0; 6 4 2 0; 7 0 2 3; 8 4 2 3;
9 4 2 2.4; 10 4 1.6 2.4; 11 4 1.6 3; 12 4 2 1.8; 13 4 1.6 1.8; 14 4 2 1.2;
15 4 1.6 1.2; 16 4 2 0.6; 17 4 1.6 0.6; 18 4 1.6 0; 19 4 1.2 2.4; 20 4 1.2 3;
21 4 1.2 1.8; 22 4 1.2 1.2; 23 4 1.2 0.6; 24 4 1.2 0; 25 4 0.8 2.4; 26 4 0.8 3;
27 4 0.8 1.8; 28 4 0.8 1.2; 29 4 0.8 0.6; 30 4 0.8 0; 31 4 0.4 2.4; 32 4 0.4 3;
33 4 0.4 1.8; 34 4 0.4 1.2; 35 4 0.4 0.6; 36 4 0.4 0; 37 4 0 2.4; 38 4 0 1.8;
39 4 0 1.2; 40 4 0 0.6; 41 0.8 2 3; 42 0.8 1.6 3; 43 0 1.6 3; 44 1.6 2 3;
45 1.6 1.6 3; 46 2.4 2 3; 47 2.4 1.6 3; 48 3.2 2 3; 49 3.2 1.6 3; 50 0.8 1.2 3;
51 0 1.2 3; 52 1.6 1.2 3; 53 2.4 1.2 3; 54 3.2 1.2 3; 55 0.8 0.8 3; 56 0 0.8 3;
57 1.6 0.8 3; 58 2.4 0.8 3; 59 3.2 0.8 3; 60 0.8 0.4 3; 61 0 0.4 3;
62 1.6 0.4 3; 63 2.4 0.4 3; 64 3.2 0.4 3; 65 0.8 0 3; 66 1.6 0 3; 67 2.4 0 3;
68 3.2 0 3; 69 3.2 2 0; 70 3.2 1.6 0; 71 2.4 2 0; 72 2.4 1.6 0; 73 1.6 2 0;
74 1.6 1.6 0; 75 0.8 2 0; 76 0.8 1.6 0; 77 0 1.6 0; 78 3.2 1.2 0; 79 2.4 1.2 0;
80 1.6 1.2 0; 81 0.8 1.2 0; 82 0 1.2 0; 83 3.2 0.8 0; 84 2.4 0.8 0;
85 1.6 0.8 0; 86 0.8 0.8 0; 87 0 0.8 0; 88 3.2 0.4 0; 89 2.4 0.4 0;
90 1.6 0.4 0; 91 0.8 0.4 0; 92 0 0.4 0; 93 3.2 0 0; 94 2.4 0 0; 95 1.6 0 0;
96 0.8 0 0; 97 0 2 0.6; 98 0 1.6 0.6; 99 0 2 1.2; 100 0 1.6 1.2; 101 0 2 1.8;
102 0 1.6 1.8; 103 0 2 2.4; 104 0 1.6 2.4; 105 0 1.2 0.6; 106 0 1.2 1.2;
107 0 1.2 1.8; 108 0 1.2 2.4; 109 0 0.8 0.6; 110 0 0.8 1.2; 111 0 0.8 1.8;
112 0 0.8 2.4; 113 0 0.4 0.6; 114 0 0.4 1.2; 115 0 0.4 1.8; 116 0 0.4 2.4;
# ... 8 like lines cut
ELEMENT INCIDENCES SHELL
19 8 9 10 11; 20 9 12 13 10; 21 12 14 15 13; 22 14 16 17 15; 23 16 6 18 17;
24 11 10 19 20; 25 10 13 21 19; 26 13 15 22 21; 27 15 17 23 22; 28 17 18 24 23;
29 20 19 25 26; 30 19 21 27 25; 31 21 22 28 27; 32 22 23 29 28; 33 23 24 30 29;
34 26 25 31 32; 35 25 27 33 31; 36 27 28 34 33; 37 28 29 35 34; 38 29 30 36 35;
39 32 31 37 4; 40 31 33 38 37; 41 33 34 39 38; 42 34 35 40 39; 43 35 36 2 40;
44 7 41 42 43; 45 41 44 45 42; 46 44 46 47 45; 47 46 48 49 47; 48 48 8 11 49;
49 43 42 50 51; 50 42 45 52 50; 51 45 47 53 52; 52 47 49 54 53; 53 49 11 20 54;
54 51 50 55 56; 55 50 52 57 55; 56 52 53 58 57; 57 53 54 59 58; 58 54 20 26 59;
59 56 55 60 61; 60 55 57 62 60; 61 57 58 63 62; 62 58 59 64 63; 63 59 26 32 64;
64 61 60 65 3; 65 60 62 66 65; 66 62 63 67 66; 67 63 64 68 67; 68 64 32 4 68;
69 6 69 70 18; 70 69 71 72 70; 71 71 73 74 72; 72 73 75 76 74; 73 75 5 77 76;
74 18 70 78 24; 75 70 72 79 78; 76 72 74 80 79; 77 74 76 81 80; 78 76 77 82 81;
79 24 78 83 30; 80 78 79 84 83; 81 79 80 85 84; 82 80 81 86 85; 83 81 82 87 86;
84 30 83 88 36; 85 83 84 89 88; 86 84 85 90 89; 87 85 86 91 90; 88 86 87 92 91;
89 36 88 93 2; 90 88 89 94 93; 91 89 90 95 94; 92 90 91 96 95; 93 91 92 1 96;
94 5 97 98 77; 95 97 99 100 98; 96 99 101 102 100; 97 101 103 104 102;
98 103 7 43 104; 99 77 98 105 82; 100 98 100 106 105; 101 100 102 107 106;
102 102 104 108 107; 103 104 43 51 108; 104 82 105 109 87; 105 105 106 110 109;
106 106 107 111 110; 107 107 108 112 111; 108 108 51 56 112; 109 87 109 113 92;
110 109 110 114 113; 111 110 111 115 114; 112 111 112 116 115;
# ... 15 like lines cut
ELEMENT PROPERTY
19 TO 168 THICKNESS 0.23
DEFINE MATERIAL START
ISOTROPIC CONCRETE
E 2.17185e+007
POISSON 0.17
DENSITY 23.5616
ALPHA 1e-005
DAMP 0.05
TYPE CONCRETE
STRENGTH FCU 27579
END DEFINE MATERIAL
CONSTANTS
MATERIAL CONCRETE ALL
SUPPORTS
1 TO 4 37 TO 40 65 TO 68 93 TO 96 117 TO 136 FIXED
LOAD 1 LOADTYPE Dead  TITLE DEAD LOAD
SELFWEIGHT Y -1 
ELEMENT LOAD
119 TO 143 PR GY -67.5
19 TRAP JT 0 0 -13.5 -13.5
20 TRAP JT 0 0 -13.5 -13.5
21 TRAP JT 0 0 -13.5 -13.5
22 TRAP JT 0 0 -13.5 -13.5
23 TRAP JT 0 0 -13.5 -13.5
24 TRAP JT -13.5 -13.5 -27 -27
25 TRAP JT -13.5 -13.5 -27 -27
26 TRAP JT -13.5 -13.5 -27 -27
27 TRAP JT -13.5 -13.5 -27 -27
28 TRAP JT -13.5 -13.5 -27 -27
29 TRAP JT -27 -27 -40.5 -40.5
30 TRAP JT -27 -27 -40.5 -40.5
31 TRAP JT -27 -27 -40.5 -40.5
32 TRAP JT -27 -27 -40.5 -40.5
33 TRAP JT -27 -27 -40.5 -40.5
34 TRAP JT -40.5 -40.5 -54 -54
35 TRAP JT -40.5 -40.5 -54 -54
36 TRAP JT -40.5 -40.5 -54 -54
37 TRAP JT -40.5 -40.5 -54 -54
38 TRAP JT -40.5 -40.5 -54 -54
# ... 80 like lines cut
PERFORM ANALYSIS PRINT ALL
START CONCRETE DESIGN
CODE INDIAN
FC 25000 ALL
DESIGN ELEMENT 19 TO 168
CONCRETE TAKE
END CONCRETE DESIGN
FINISH
