STAAD SPACE
START JOB INFORMATION
ENGINEER DATE 02-Mar-20
END JOB INFORMATION
INPUT WIDTH 79
UNIT METER KN
JOINT COORDINATES
1 0 0 0; 2 4.6 0 0; 3 8.05 0 0; 4 12.65 0 0; 5 12.65 0 6.6; 6 12.65 0 13.5;
7 12.65 0 20.1; 8 0 0 6.6; 11 4.6 0 6.6; 12 8.05 0 6.6; 13 8.05 0 3.3;
14 8.05 0 13.5; 15 8.05 0 20.1; 18 0 0 13.5; 19 0 0 20.1; 20 4.6 0 10.7;
24 4.6 0 13.5; 25 4.6 0 20.1; 26 8.05 0 16.235; 27 4.6 0 16.235; 34 0 0 3.3;
35 0 0 16.8; 36 12.65 0 16.8; 37 0 1.2 0; 38 4.6 1.2 0; 39 8.05 1.2 0;
40 12.65 1.2 0; 41 12.65 1.2 6.6; 42 12.65 1.2 13.5; 43 12.65 1.2 20.1;
44 0 1.2 6.6; 45 4.6 1.2 6.6; 46 8.05 1.2 6.6; 47 8.05 1.2 3.3;
48 8.05 1.2 13.5; 49 8.05 1.2 20.1; 50 0 1.2 13.5; 51 0 1.2 20.1;
52 4.6 1.2 10.7; 53 4.6 1.2 13.5; 54 4.6 1.2 20.1; 55 8.05 1.2 16.235;
56 4.6 1.2 16.235; 57 0 1.2 3.3; 58 0 1.2 16.8; 59 12.65 1.2 16.8; 60 0 4.2 0;
61 4.6 4.2 0; 62 8.05 4.2 0; 63 12.65 4.2 0; 64 12.65 4.2 6.6;
65 12.65 4.2 13.5; 66 12.65 4.2 20.1; 67 0 4.2 6.6; 68 4.6 4.2 6.6;
69 8.05 4.2 6.6; 70 8.05 4.2 3.3; 71 8.05 4.2 13.5; 72 8.05 4.2 20.1;
73 0 4.2 13.5; 74 0 4.2 20.1; 75 4.6 4.2 10.7; 76 4.6 4.2 13.5;
77 4.6 4.2 20.1; 78 8.05 4.2 16.235; 79 4.6 4.2 16.235; 80 0 4.2 3.3;
81 0 4.2 16.8; 82 12.65 4.2 16.8; 83 0 7.2 0; 84 4.6 7.2 0; 85 8.05 7.2 0;
86 12.65 7.2 0; 87 12.65 7.2 6.6; 88 12.65 7.2 13.5; 89 12.65 7.2 20.1;
90 0 7.2 6.6; 91 4.6 7.2 6.6; 92 8.05 7.2 6.6; 93 8.05 7.2 3.3;
94 8.05 7.2 13.5; 95 8.05 7.2 20.1; 96 0 7.2 13.5; 97 0 7.2 20.1;
98 4.6 7.2 10.7; 99 4.6 7.2 13.5; 100 4.6 7.2 20.1; 101 8.05 7.2 16.235;
# ... 11 like lines cut
MEMBER INCIDENCES
56 1 37; 57 2 38; 58 3 39; 59 4 40; 60 5 41; 61 6 42; 62 7 43; 63 8 44;
64 11 45; 65 12 46; 66 13 47; 67 14 48; 68 15 49; 69 18 50; 70 19 51; 71 20 52;
72 24 53; 73 25 54; 74 26 55; 75 27 56; 76 34 57; 77 35 58; 78 36 59; 79 37 60;
80 38 61; 81 39 62; 82 40 63; 83 41 64; 84 42 65; 85 43 66; 86 44 67; 87 45 68;
88 46 69; 89 47 70; 90 48 71; 91 49 72; 92 50 73; 93 51 74; 94 52 75; 95 53 76;
96 54 77; 97 55 78; 98 56 79; 99 57 80; 100 58 81; 101 59 82; 102 60 83;
103 61 84; 104 62 85; 105 63 86; 106 64 87; 107 65 88; 108 66 89; 109 67 90;
110 68 91; 111 69 92; 112 70 93; 113 71 94; 114 72 95; 115 73 96; 116 74 97;
117 75 98; 118 76 99; 119 77 100; 120 78 101; 121 79 102; 122 80 103;
123 81 104; 124 82 105; 125 37 38; 126 38 39; 127 39 40; 128 40 41; 129 41 42;
130 42 59; 131 37 57; 132 39 47; 133 106 45; 134 44 45; 135 46 41; 136 46 107;
137 45 46; 138 106 107; 139 46 48; 140 48 55; 141 48 42; 142 49 43; 143 44 108;
144 108 146; 146 50 58; 147 45 52; 148 108 110; 149 110 52; 150 110 145;
153 50 112; 154 53 52; 156 51 54; 157 53 56; 158 49 155; 159 54 156;
160 56 151; 161 53 48; 166 57 44; 167 38 106; 168 58 51; 169 59 43; 170 60 61;
171 61 62; 172 62 63; 173 63 64; 174 64 65; 175 65 82; 176 60 80; 177 62 70;
178 117 68; 179 67 68; 180 69 64; 181 69 118; 182 68 69; 183 117 118;
184 69 71; 185 71 78; 186 71 65; 187 72 66; 188 67 119; 189 119 148; 191 73 81;
192 68 75; 193 119 121; 194 121 75; 195 121 147; 198 73 123; 199 76 75;
201 74 77; 202 76 79; 203 72 158; 204 77 159; 205 79 152; 206 76 71; 211 80 67;
# ... 12 like lines cut
START GROUP DEFINITION
FLOOR
_SUNK200 205 288 289 303 310
END GROUP DEFINITION
DEFINE MATERIAL START
ISOTROPIC CONCRETE
E 2.17185e+007
POISSON 0.17
DENSITY 23.5616
ALPHA 1e-005
DAMP 0.05
TYPE CONCRETE
STRENGTH FCU 27579
END DEFINE MATERIAL
MEMBER PROPERTY AMERICAN
79 TO 124 PRIS YD 0.48 ZD 0.3
125 TO 144 146 TO 150 153 154 156 TO 161 166 TO 189 191 TO 195 198 199 201 -
202 TO 206 211 TO 234 236 TO 240 243 244 246 TO 251 256 TO 259 270 TO 278 -
282 284 288 289 292 TO 311 PRIS YD 0.45 ZD 0.3
MEMBER PROPERTY AMERICAN
56 TO 78 PRIS YD 0.4 ZD 0.3
CONSTANTS
BETA 90 MEMB 56 TO 62 66 68 70 73 TO 85 89 91 93 96 TO 108 112 114 116 119 -
120 TO 124
MATERIAL CONCRETE ALL
SUPPORTS
1 TO 8 11 TO 15 18 TO 20 24 TO 27 34 TO 36 FIXED
MEMBER OFFSET
62 68 70 73 85 91 93 96 108 114 116 119 START 0 0 -0.09
62 68 70 73 85 91 93 96 108 114 116 119 END 0 0 -0.09
56 TO 61 74 75 79 TO 84 97 98 102 TO 107 120 121 START 0 0 0.09
56 TO 61 74 75 79 TO 84 97 98 102 TO 107 120 121 END 0 0 0.09
63 65 67 69 86 88 90 92 109 111 113 115 START 0.09 0 0
63 65 67 69 86 88 90 92 109 111 113 115 END 0.09 0 0
64 71 72 87 94 95 110 117 118 START -0.09 0 0
64 71 72 87 94 95 110 117 118 END -0.09 0 0
LOAD 1 LOADTYPE Dead  TITLE DEAD LOAD
SELFWEIGHT Y -1 
SELFWEIGHT Y -1 LIST 249
SELFWEIGHT Y -1 LIST 248
SELFWEIGHT Y -1 LIST 204
SELFWEIGHT Y -1 LIST 203
SELFWEIGHT Y -1 LIST 159
SELFWEIGHT Y -1 LIST 158
SELFWEIGHT Y -1 LIST 250
SELFWEIGHT Y -1 LIST 205
SELFWEIGHT Y -1 LIST 160
FLOOR LOAD
YRANGE 1.2 7.2 FLOAD -8.5 GY
MEMBER LOAD
125 TO 144 146 TO 150 153 154 156 157 161 166 TO 189 191 TO 195 198 199 201 -
202 206 211 TO 214 270 TO 275 282 284 288 289 294 295 299 300 309 -
310 UNI GY -60
302 UNI GY -60 -2.29478e-006 3.6
204 UNI GY -60 0 0.264999
301 UNI GY -60 -2.29478e-006 3.6
203 UNI GY -60 0 0.264999
297 UNI GY -60 -2.29478e-006 3.6
159 UNI GY -60 0 0.264999
296 UNI GY -60 -2.29478e-006 3.6
158 UNI GY -60 0 0.264999
303 UNI GY -60 1.19209e-007 1.725
303 UNI GY -60 0 1.19209e-007
205 UNI GY -60 0 1.725
298 UNI GY -60 1.19209e-007 1.725
298 UNI GY -60 0 1.19209e-007
160 UNI GY -60 0 1.725
215 TO 234 236 TO 240 243 244 246 247 251 256 TO 259 276 TO 278 292 293 304 -
305 311 UNI GY -25.7
307 UNI GY -25.7 -2.29478e-006 3.6
249 UNI GY -25.7 0 0.264999
306 UNI GY -25.7 -2.29478e-006 3.6
248 UNI GY -25.7 0 0.264999
308 UNI GY -25.7 1.19209e-007 1.725
308 UNI GY -25.7 0 1.19209e-007
250 UNI GY -25.7 0 1.725
FLOOR LOAD
_SUNK200 FLOAD -4 GY
PERFORM ANALYSIS
PERFORM ANALYSIS
START CONCRETE DESIGN
CODE INDIAN
FC 25000 MEMB 56 TO 143 146 TO 149 154 156 157 161 166 TO 188 191 TO 194 199 -
201 202 206 211 TO 233 236 TO 239 244 246 247 251 256 TO 259 294 299 304
FYMAIN 500000 MEMB 56 TO 143 146 TO 149 154 156 157 161 166 TO 188 -
191 TO 194 199 201 202 206 211 TO 233 236 TO 239 244 246 247 251 256 TO 259 -
294 299 304
FYSEC 250000 MEMB 56 TO 143 146 TO 149 154 156 157 161 166 TO 188 191 TO 194 -
199 201 202 206 211 TO 233 236 TO 239 244 246 247 251 256 TO 259 294 299 -
304
DESIGN BEAM 56 TO 143 146 TO 149 154 156 157 161 166 TO 188 191 TO 194 199 -
201 202 206 211 TO 233 236 TO 239 244 246 247 251 256 TO 259 294 299 304
DESIGN COLUMN 56 TO 143 146 TO 149 154 156 157 161 166 TO 188 191 TO 194 199 -
201 202 206 211 TO 233 236 TO 239 244 246 247 251 256 TO 259 294 299 304
CONCRETE TAKE
END CONCRETE DESIGN
PERFORM ANALYSIS
PERFORM ANALYSIS
FINISH
