STAAD TRUSS
START JOB INFORMATION
ENGINEER DATE 11-Mar-20
END JOB INFORMATION
INPUT WIDTH 79
UNIT METER KN
JOINT COORDINATES
1 0 0 10.8; 2 2.4 0 10.8; 3 4.8 0 10.8; 4 7.2 0 10.8; 5 9.6 0 10.8;
6 4.8 3.6 10.8; 7 2.4 1.8 10.8; 8 7.2 1.8 10.8; 9 0 0 12.3; 10 2.4 0 12.3;
11 4.8 0 12.3; 12 7.2 0 12.3; 13 9.6 0 12.3; 14 4.8 3.6 12.3; 15 2.4 1.8 12.3;
16 7.2 1.8 12.3; 17 0 0 13.8; 18 2.4 0 13.8; 19 4.8 0 13.8; 20 7.2 0 13.8;
21 9.6 0 13.8; 22 4.8 3.6 13.8; 23 2.4 1.8 13.8; 24 7.2 1.8 13.8; 25 0 0 15.3;
26 2.4 0 15.3; 27 4.8 0 15.3; 28 7.2 0 15.3; 29 9.6 0 15.3; 30 4.8 3.6 15.3;
31 2.4 1.8 15.3; 32 7.2 1.8 15.3;
MEMBER INCIDENCES
1 1 2; 2 2 3; 3 3 4; 4 4 5; 5 3 6; 6 6 7; 7 6 8; 8 7 1; 9 8 5; 10 7 2; 11 2 6;
12 8 4; 13 4 6; 14 1 9; 15 2 10; 16 3 11; 17 4 12; 18 5 13; 19 6 14; 20 7 15;
21 8 16; 22 9 10; 23 10 11; 24 11 12; 25 12 13; 26 11 14; 27 14 15; 28 14 16;
29 15 9; 30 16 13; 31 15 10; 32 10 14; 33 16 12; 34 12 14; 35 9 17; 36 10 18;
37 11 19; 38 12 20; 39 13 21; 40 14 22; 41 15 23; 42 16 24; 43 17 18; 44 18 19;
45 19 20; 46 20 21; 47 19 22; 48 22 23; 49 22 24; 50 23 17; 51 24 21; 52 23 18;
53 18 22; 54 24 20; 55 20 22; 56 17 25; 57 18 26; 58 19 27; 59 20 28; 60 21 29;
61 22 30; 62 23 31; 63 24 32; 64 25 26; 65 26 27; 66 27 28; 67 28 29; 68 27 30;
69 30 31; 70 30 32; 71 31 25; 72 32 29; 73 31 26; 74 26 30; 75 32 28; 76 28 30;
DEFINE MATERIAL START
ISOTROPIC STEEL
E 2.05e+008
POISSON 0.3
DENSITY 76.8195
ALPHA 1.2e-005
DAMP 0.03
TYPE STEEL
STRENGTH FY 253200 FU 407800 RY 1.5 RT 1.2
END DEFINE MATERIAL
MEMBER PROPERTY INDIAN
14 TO 21 35 TO 42 56 TO 63 TABLE ST ISHB250H
1 TO 4 6 TO 9 22 TO 25 27 TO 30 43 TO 46 48 TO 51 64 TO 67 69 TO 71 -
72 TABLE ST ISMC300H
5 10 TO 13 26 31 TO 34 47 52 TO 55 68 73 TO 76 TABLE ST ISA100x100x10
CONSTANTS
MATERIAL STEEL ALL
SUPPORTS
1 9 17 25 FIXED
5 13 21 29 PINNED
LOAD 1 LOADTYPE Dead  TITLE Dead Load
SELFWEIGHT Y -1 LIST ALL
JOINT LOAD
6 TO 8 14 TO 16 22 TO 24 30 TO 32 FY -8
1 5 9 13 17 21 25 29 FY -4
LOAD 2 LOADTYPE Live  TITLE Live Load
JOINT LOAD
6 TO 8 14 TO 16 22 TO 24 30 TO 32 FY -5
1 5 9 13 17 21 25 29 FY -2.5
LOAD 3 LOADTYPE Wind  TITLE Wind Load 
JOINT LOAD
6 TO 8 14 TO 16 22 TO 24 30 TO 32 FX 8 FY 5
6 TO 8 14 TO 16 22 TO 24 30 TO 32 FX -8 FY 5
1 5 9 13 17 21 25 29 FX -4 FY 2.5
1 5 9 13 17 21 25 29 FX 4 FY 2.5
PERFORM ANALYSIS PRINT ALL
FINISH
