STAAD SPACE
START JOB INFORMATION
ENGINEER DATE 09-Mar-20
END JOB INFORMATION
INPUT WIDTH 79
UNIT METER KN
JOINT COORDINATES
1 0 0 0; 2 5 0 0; 3 0 0 3; 4 5 0 3; 5 0 3 0; 6 5 3 0; 7 0 3 3; 8 5 3 3;
9 0 5 0; 10 5 5 0; 11 0 5 3; 12 5 5 3; 13 1.25 5 3; 14 1.25 4.5 3;
15 0 4.5 3; 16 2.5 5 3; 17 2.5 4.5 3; 18 3.75 5 3; 19 3.75 4.5 3;
20 5 4.5 3; 21 1.25 4 3; 22 0 4 3; 23 2.5 4 3; 24 3.75 4 3; 25 5 4 3;
26 1.25 3.5 3; 27 0 3.5 3; 28 2.5 3.5 3; 29 3.75 3.5 3; 30 5 3.5 3;
31 1.25 3 3; 32 2.5 3 3; 33 3.75 3 3; 34 0 5 0.75; 35 0 4.5 0.75;
36 0 4.5 0; 37 0 5 1.5; 38 0 4.5 1.5; 39 0 5 2.25; 40 0 4.5 2.25;
41 0 4 0.75; 42 0 4 0; 43 0 4 1.5; 44 0 4 2.25; 45 0 3.5 0.75;
46 0 3.5 0; 47 0 3.5 1.5; 48 0 3.5 2.25; 49 0 3 0.75; 50 0 3 1.5;
51 0 3 2.25; 52 5 5 2.25; 53 5 4.5 2.25; 54 5 5 1.5; 55 5 4.5 1.5;
56 5 5 0.75; 57 5 4.5 0.75; 58 5 4.5 0; 59 5 4 2.25; 60 5 4 1.5;
61 5 4 0.75; 62 5 4 0; 63 5 3.5 2.25; 64 5 3.5 1.5; 65 5 3.5 0.75;
66 5 3.5 0; 67 5 3 2.25; 68 5 3 1.5; 69 5 3 0.75; 70 3.75 5 0;
71 3.75 4.5 0; 72 2.5 5 0; 73 2.5 4.5 0; 74 1.25 5 0; 75 1.25 4.5 0;
76 3.75 4 0; 77 2.5 4 0; 78 1.25 4 0; 79 3.75 3.5 0; 80 2.5 3.5 0;
81 1.25 3.5 0; 82 3.75 3 0; 83 2.5 3 0; 84 1.25 3 0; 85 3.75 3 2.25;
86 2.5 3 2.25; 87 1.25 3 2.25; 88 3.75 3 1.5; 89 2.5 3 1.5;
90 1.25 3 1.5; 91 3.75 3 0.75; 92 2.5 3 0.75; 93 1.25 3 0.75;
MEMBER INCIDENCES
5 1 5; 6 2 6; 7 3 7; 8 4 8;
ELEMENT INCIDENCES SHELL
26 12 11 9 10; 27 11 13 14 15; 28 13 16 17 14; 29 16 18 19 17;
30 18 12 20 19; 31 15 14 21 22; 32 14 17 23 21; 33 17 19 24 23;
34 19 20 25 24; 35 22 21 26 27; 36 21 23 28 26; 37 23 24 29 28;
38 24 25 30 29; 39 27 26 31 7; 40 26 28 32 31; 41 28 29 33 32;
42 29 30 8 33; 43 9 34 35 36; 44 34 37 38 35; 45 37 39 40 38;
46 39 11 15 40; 47 36 35 41 42; 48 35 38 43 41; 49 38 40 44 43;
50 40 15 22 44; 51 42 41 45 46; 52 41 43 47 45; 53 43 44 48 47;
54 44 22 27 48; 55 46 45 49 5; 56 45 47 50 49; 57 47 48 51 50;
58 48 27 7 51; 59 12 52 53 20; 60 52 54 55 53; 61 54 56 57 55;
63 56 10 58 57; 64 20 53 59 25; 65 53 55 60 59; 66 55 57 61 60;
68 57 58 62 61; 69 25 59 63 30; 70 59 60 64 63; 71 60 61 65 64;
73 61 62 66 65; 74 30 63 67 8; 75 63 64 68 67; 76 64 65 69 68;
77 65 66 6 69; 78 10 70 71 58; 79 70 72 73 71; 80 72 74 75 73;
81 74 9 36 75; 82 58 71 76 62; 83 71 73 77 76; 84 73 75 78 77;
85 75 36 42 78; 86 62 76 79 66; 87 76 77 80 79; 88 77 78 81 80;
89 78 42 46 81; 90 66 79 82 6; 91 79 80 83 82; 92 80 81 84 83;
93 81 46 5 84; 94 8 33 85 67; 95 33 32 86 85; 96 32 31 87 86;
97 31 7 51 87; 98 67 85 88 68; 99 85 86 89 88; 100 86 87 90 89;
101 87 51 50 90; 102 68 88 91 69; 103 88 89 92 91; 104 89 90 93 92;
105 90 50 49 93; 106 69 91 82 6; 107 91 92 83 82; 108 92 93 84 83;
109 93 49 5 84;
ELEMENT PROPERTY
27 TO 61 63 TO 66 68 TO 71 73 TO 109 THICKNESS 0.23
26 THICKNESS 0.23
DEFINE MATERIAL START
ISOTROPIC CONCRETE
E 2.17185e+007
POISSON 0.17
DENSITY 23.5616
ALPHA 1e-005
DAMP 0.05
TYPE CONCRETE
STRENGTH FCU 27579
END DEFINE MATERIAL
MEMBER PROPERTY
5 TO 8 PRIS YD 0.5 ZD 0.3
CONSTANTS
BETA 90 ALL
MATERIAL CONCRETE ALL
SUPPORTS
1 TO 4 FIXED
MEMBER OFFSET
5 7 START 0.185 0 0
5 7 END 0.185 0 0
6 8 START -0.185 0 0
6 8 END -0.185 0 0
LOAD 1 LOADTYPE Dead  TITLE Dead Load 
SELFWEIGHT Y -1 LIST ALL
ELEMENT LOAD
94 TO 109 PR GY -75
43 TRAP JT 0 0 -18.75 -18.75
44 TRAP JT 0 0 -18.75 -18.75
45 TRAP JT 0 0 -18.75 -18.75
46 TRAP JT 0 0 -18.75 -18.75
47 TRAP JT -18.75 -18.75 -37.5 -37.5
48 TRAP JT -18.75 -18.75 -37.5 -37.5
49 TRAP JT -18.75 -18.75 -37.5 -37.5
50 TRAP JT -18.75 -18.75 -37.5 -37.5
51 TRAP JT -37.5 -37.5 -56.25 -56.25
52 TRAP JT -37.5 -37.5 -56.25 -56.25
53 TRAP JT -37.5 -37.5 -56.25 -56.25
54 TRAP JT -37.5 -37.5 -56.25 -56.25
55 TRAP JT -56.25 -56.25 -75 -75
56 TRAP JT -56.25 -56.25 -75 -75
57 TRAP JT -56.25 -56.25 -75 -75
58 TRAP JT -56.25 -56.25 -75 -75
59 TRAP JT 0 0 -18.75 -18.75
60 TRAP JT 0 0 -18.75 -18.75
61 TRAP JT 0 0 -18.75 -18.75
63 TRAP JT 0 0 -18.75 -18.75
# ... 44 like lines cut
PERFORM ANALYSIS PRINT ALL
START CONCRETE DESIGN
CODE INDIAN
FC 30000 ALL
FYMAIN 500000 ALL
DESIGN COLUMN 5 TO 8
DESIGN ELEMENT 26 TO 61 63 TO 66 68 TO 71 73 TO 109
CONCRETE TAKE
END CONCRETE DESIGN
FINISH
