STAAD SPACE
START JOB INFORMATION
ENGINEER DATE 12-Mar-20
END JOB INFORMATION
INPUT WIDTH 79
UNIT METER KN
JOINT COORDINATES
1 0 0 0; 2 3 0 0; 3 6 0 0; 4 9 0 0; 5 12 0 0; 6 0 3 0; 7 3 3 0; 8 6 3 0;
9 9 3 0; 10 12 3 0; 11 0 6 0; 12 3 6 0; 13 6 6 0; 14 9 6 0; 15 12 6 0;
16 0 9 0; 17 3 9 0; 18 6 9 0; 19 9 9 0; 20 12 9 0; 21 0 12 0; 22 3 12 0;
23 6 12 0; 24 9 12 0; 25 12 12 0; 26 0 15 0; 27 3 15 0; 28 6 15 0;
29 9 15 0; 30 12 15 0; 31 0 0 3; 32 3 0 3; 33 6 0 3; 34 9 0 3;
35 12 0 3; 36 0 3 3; 37 3 3 3; 38 6 3 3; 39 9 3 3; 40 12 3 3; 41 0 6 3;
42 3 6 3; 43 6 6 3; 44 9 6 3; 45 12 6 3; 46 0 9 3; 47 3 9 3; 48 6 9 3;
49 9 9 3; 50 12 9 3; 51 0 12 3; 52 3 12 3; 53 6 12 3; 54 9 12 3;
55 12 12 3; 56 0 15 3; 57 3 15 3; 58 6 15 3; 59 9 15 3; 60 12 15 3;
61 0 0 6; 62 3 0 6; 63 6 0 6; 64 9 0 6; 65 12 0 6; 66 0 3 6; 67 3 3 6;
68 6 3 6; 69 9 3 6; 70 12 3 6; 71 0 6 6; 72 3 6 6; 73 6 6 6; 74 9 6 6;
75 12 6 6; 76 0 9 6; 77 3 9 6; 78 6 9 6; 79 9 9 6; 80 12 9 6; 81 0 12 6;
82 3 12 6; 83 6 12 6; 84 9 12 6; 85 12 12 6; 86 0 15 6; 87 3 15 6;
88 6 15 6; 89 9 15 6; 90 12 15 6; 91 0 0 9; 92 3 0 9; 93 6 0 9;
94 9 0 9; 95 12 0 9; 96 0 3 9; 97 3 3 9; 98 6 3 9; 99 9 3 9; 100 12 3 9;
101 0 6 9; 102 3 6 9; 103 6 6 9; 104 9 6 9; 105 12 6 9; 106 0 9 9;
107 3 9 9; 108 6 9 9; 109 9 9 9; 110 12 9 9; 111 0 12 9; 112 3 12 9;
113 6 12 9; 114 9 12 9; 115 12 12 9; 116 0 15 9; 117 3 15 9; 118 6 15 9;
119 9 15 9; 120 12 15 9; 121 0 0 12; 122 3 0 12; 123 6 0 12; 124 9 0 12;
125 12 0 12; 126 0 3 12; 127 3 3 12; 128 6 3 12; 129 9 3 12;
# ... 5 like lines cut
MEMBER INCIDENCES
1 6 7; 2 7 8; 3 8 9; 4 9 10; 5 11 12; 6 12 13; 7 13 14; 8 14 15;
9 16 17; 10 17 18; 11 18 19; 12 19 20; 13 21 22; 14 22 23; 15 23 24;
16 24 25; 17 26 27; 18 27 28; 19 28 29; 20 29 30; 21 1 6; 22 2 7;
23 3 8; 24 4 9; 25 5 10; 26 6 11; 27 7 12; 28 8 13; 29 9 14; 30 10 15;
31 11 16; 32 12 17; 33 13 18; 34 14 19; 35 15 20; 36 16 21; 37 17 22;
38 18 23; 39 19 24; 40 20 25; 41 21 26; 42 22 27; 43 23 28; 44 24 29;
45 25 30; 46 36 37; 47 37 38; 48 38 39; 49 39 40; 50 41 42; 51 42 43;
52 43 44; 53 44 45; 54 46 47; 55 47 48; 56 48 49; 57 49 50; 58 51 52;
59 52 53; 60 53 54; 61 54 55; 62 56 57; 63 57 58; 64 58 59; 65 59 60;
66 31 36; 67 32 37; 68 33 38; 69 34 39; 70 35 40; 71 36 41; 72 37 42;
73 38 43; 74 39 44; 75 40 45; 76 41 46; 77 42 47; 78 43 48; 79 44 49;
80 45 50; 81 46 51; 82 47 52; 83 48 53; 84 49 54; 85 50 55; 86 51 56;
87 52 57; 88 53 58; 89 54 59; 90 55 60; 91 66 67; 92 67 68; 93 68 69;
94 69 70; 95 71 72; 96 72 73; 97 73 74; 98 74 75; 99 76 77; 100 77 78;
101 78 79; 102 79 80; 103 81 82; 104 82 83; 105 83 84; 106 84 85;
107 86 87; 108 87 88; 109 88 89; 110 89 90; 111 61 66; 112 62 67;
113 63 68; 114 64 69; 115 65 70; 116 66 71; 117 67 72; 118 68 73;
119 69 74; 120 70 75; 121 71 76; 122 72 77; 123 73 78; 124 74 79;
125 75 80; 126 76 81; 127 77 82; 128 78 83; 129 79 84; 130 80 85;
131 81 86; 132 82 87; 133 83 88; 134 84 89; 135 85 90; 136 96 97;
# ... 35 like lines cut
DEFINE MATERIAL START
ISOTROPIC CONCRETE
E 2.17185e+007
POISSON 0.17
DENSITY 23.5616
ALPHA 1e-005
DAMP 0.05
TYPE CONCRETE
STRENGTH FCU 27579
END DEFINE MATERIAL
MEMBER PROPERTY
1 TO 325 PRIS YD 0.6 ZD 0.3
CONSTANTS
MATERIAL CONCRETE ALL
SUPPORTS
1 TO 5 31 TO 35 61 TO 65 91 TO 95 121 TO 125 FIXED
DEFINE 1893 LOAD
ZONE 0.16 RF 5 I 1 SS 1 ST 1 DM 0.05
SELFWEIGHT 1
MEMBER WEIGHT
17 TO 20 62 TO 65 107 TO 110 152 TO 155 197 TO 200 246 TO 250 -
271 TO 275 296 TO 300 321 TO 325 UNI -5 3 15
1 TO 16 46 TO 61 91 TO 106 136 TO 151 181 TO 196 226 TO 245 -
251 TO 270 276 TO 295 301 TO 320 UNI -14 3 15
FLOOR WEIGHT
YRANGE 3 15 FLOAD -4.75
LOAD 1 LOADTYPE Seismic  TITLE eqx x
1893 LOAD X 1
LOAD 2 LOADTYPE Seismic  TITLE eqx z
1893 LOAD Z 1
LOAD 3 LOADTYPE Dead  TITLE dl
SELFWEIGHT Y -1 LIST ALL
FLOOR LOAD
YRANGE 3 15 FLOAD -4.75 GY
LOAD 4 LOADTYPE Live  TITLE ll
FLOOR LOAD
YRANGE 3 15 FLOAD -3 GY
LOAD COMB 5 COMBINATION LOAD CASE 5
3 1.0 4 0.25 
PERFORM ANALYSIS PRINT ALL
START CONCRETE DESIGN
CODE INDIAN
FC 250000 ALL
FYMAIN 415000 ALL
FYSEC 250000 ALL
DESIGN BEAM 1 TO 325
DESIGN COLUMN 1 TO 325
CONCRETE TAKE
END CONCRETE DESIGN
FINISH
