STAAD SPACE
START JOB INFORMATION
ENGINEER DATE 03-Mar-20
END JOB INFORMATION
INPUT WIDTH 79
UNIT METER KN
JOINT COORDINATES
2 1 0 0; 9 0.67 0 5.87; 15 3.65 0 5.87; 19 3.65 0 1.63; 21 7.88 0 1.63;
23 5.52 0 5.26; 26 7.88 0 8.61; 31 4.61 0 8.61; 34 2.8 0 8.61; 35 0.98 0 8.61;
36 2.8 0 10.43; 37 0.98 0 10.43; 41 1 0 19.81; 48 0.67 0 13.94;
52 3.65 0 13.94; 55 3.65 0 18.18; 57 7.88 0 18.18; 59 5.52 0 14.55;
61 7.88 0 11.2; 65 4.61 0 11.2; 66 2.8 0 11.2; 68 1 0 3.29; 70 1 0 16.52;
71 1 0 18.165; 72 0.67 0 11.2; 73 1 1.2 0; 74 0.67 1.2 5.87; 75 3.65 1.2 5.87;
76 3.65 1.2 1.63; 77 7.88 1.2 1.63; 78 5.52 1.2 5.26; 79 7.88 1.2 8.61;
80 4.61 1.2 8.61; 81 2.8 1.2 8.61; 82 0.98 1.2 8.61; 83 2.8 1.2 10.43;
84 0.98 1.2 10.43; 85 1 1.2 19.81; 86 0.67 1.2 13.94; 87 3.65 1.2 13.94;
88 3.65 1.2 18.18; 89 7.88 1.2 18.18; 90 5.52 1.2 14.55; 91 7.88 1.2 11.2;
92 4.61 1.2 11.2; 93 2.8 1.2 11.2; 94 1 1.2 3.29; 96 1 1.2 16.52;
97 1 1.2 18.165; 98 0.67 1.2 11.2; 99 1 4.2 0; 100 0.67 4.2 5.87;
101 3.65 4.2 5.87; 102 3.65 4.2 1.63; 103 7.88 4.2 1.63; 104 5.52 4.2 5.26;
105 7.88 4.2 8.61; 106 4.61 4.2 8.61; 107 2.8 4.2 8.61; 108 0.98 4.2 8.61;
109 2.8 4.2 10.43; 110 0.98 4.2 10.43; 111 1 4.2 19.81; 112 0.67 4.2 13.94;
113 3.65 4.2 13.94; 114 3.65 4.2 18.18; 115 7.88 4.2 18.18; 116 5.52 4.2 14.55;
117 7.88 4.2 11.2; 118 4.61 4.2 11.2; 119 2.8 4.2 11.2; 120 1 4.2 3.29;
122 1 4.2 16.52; 123 1 4.2 18.165; 124 0.67 4.2 11.2; 125 1 7.2 0;
126 0.67 7.2 5.87; 127 3.65 7.2 5.87; 128 3.65 7.2 1.63; 129 7.88 7.2 1.63;
130 5.52 7.2 5.26; 131 7.88 7.2 8.61; 132 4.61 7.2 8.61; 133 2.8 7.2 8.61;
# ... 34 like lines cut
MEMBER INCIDENCES
104 2 73; 105 9 74; 106 15 75; 107 19 76; 108 21 77; 109 23 78; 110 26 79;
111 31 80; 112 34 81; 113 35 82; 114 36 83; 115 37 84; 116 41 85; 117 48 86;
118 52 87; 119 55 88; 120 57 89; 121 59 90; 122 61 91; 123 65 92; 124 66 93;
125 68 94; 127 70 96; 128 71 97; 129 72 98; 130 73 99; 131 74 100; 132 75 101;
133 76 102; 134 77 103; 135 78 104; 136 79 105; 137 80 106; 138 81 107;
139 82 108; 140 83 109; 141 84 110; 142 85 111; 143 86 112; 144 87 113;
145 88 114; 146 89 115; 147 90 116; 148 91 117; 149 92 118; 150 93 119;
151 94 120; 153 96 122; 154 97 123; 155 98 124; 156 99 125; 157 100 126;
158 101 127; 159 102 128; 160 103 129; 161 104 130; 162 105 131; 163 106 132;
164 107 133; 165 108 134; 166 109 135; 167 110 136; 168 111 137; 169 112 138;
170 113 139; 171 114 140; 172 115 141; 173 116 142; 174 117 143; 175 118 144;
176 119 145; 177 120 146; 179 122 148; 180 123 149; 181 124 150; 198 159 160;
199 160 161; 200 161 162; 211 169 73; 212 73 170; 213 169 171; 214 76 172;
215 171 173; 216 172 191; 217 173 195; 218 74 174; 219 174 175; 220 74 193;
221 76 170; 222 76 176; 223 176 78; 224 77 178; 225 178 78; 226 177 78;
227 178 79; 228 175 82; 229 80 179; 230 80 79; 231 80 92; 233 81 83; 234 82 84;
235 84 83; 236 181 85; 237 85 182; 238 181 183; 239 88 184; 240 183 185;
241 184 202; 242 185 200; 243 86 186; 244 186 187; 245 86 199; 246 88 182;
247 88 188; 248 188 90; 249 89 190; 250 190 90; 251 189 90; 252 190 91;
253 92 197; 254 92 91; 255 73 160; 256 85 97; 257 97 96; 258 187 98; 259 98 93;
# ... 34 like lines cut
START GROUP DEFINITION
FLOOR
_SUNK200 276 279 301 304 319 TO 321 323 325 TO 327 416 417 426 TO 428 435 -
468 469 471 472
_SC 230 231 254 269 289 290 313 328 348 349 372 387
END GROUP DEFINITION
DEFINE MATERIAL START
ISOTROPIC CONCRETE
E 2.17185e+007
POISSON 0.17
DENSITY 23.5616
ALPHA 1e-005
DAMP 0.05
TYPE CONCRETE
STRENGTH FCU 27579
END DEFINE MATERIAL
MEMBER PROPERTY AMERICAN
104 112 114 TO 116 124 129 130 138 140 TO 142 150 155 156 164 166 TO 168 176 -
181 PRIS YD 0.5 ZD 0.3
125 127 151 153 177 179 PRIS YD 0.53 ZD 0.38
107 109 119 121 133 135 145 147 159 161 171 173 PRIS YD 0.6 ZD 0.3
105 108 110 111 113 117 120 122 123 131 134 136 137 139 143 146 148 149 157 -
160 162 163 165 169 172 174 175 PRIS YD 0.53 ZD 0.3
106 118 132 144 158 170 PRIS YD 0.7 ZD 0.4
211 TO 231 233 TO 290 292 TO 349 351 TO 403 406 407 409 410 413 TO 428 431 -
432 434 435 438 TO 453 456 457 459 TO 478 PRIS YD 0.5 ZD 0.3
128 154 180 198 TO 200 PRIS YD 0.6 ZD 0.3
CONSTANTS
BETA 90 MEMB 106 TO 108 118 TO 120 132 TO 134 144 TO 146 158 TO 160 170 TO 172
MATERIAL CONCRETE ALL
SUPPORTS
2 9 15 19 21 23 26 31 34 TO 37 41 48 52 55 57 59 61 65 66 68 70 TO 72 159 FIXED
MEMBER OFFSET
105 111 113 117 123 125 127 131 137 139 143 149 151 153 157 163 165 169 175 -
177 179 START 0.115 0 0
105 111 113 117 123 125 127 131 137 139 143 149 151 153 157 163 165 169 175 -
177 179 END 0.115 0 0
119 145 171 START 0 0 -0.15
119 145 171 END 0 0 -0.15
120 146 172 START 0 0 -0.115
120 146 172 END 0 0 -0.115
109 121 135 147 161 173 START 0.15 0 0
109 121 135 147 161 173 END 0.15 0 0
118 144 170 START 0 0 0.265
118 144 170 END 0 0 0.265
104 115 129 130 141 155 156 167 181 START 0.075 0 0
104 115 129 130 141 155 156 167 181 END 0.075 0 0
112 114 124 138 140 150 164 166 176 START -0.075 0 0
112 114 124 138 140 150 164 166 176 END -0.075 0 0
110 122 136 148 162 174 START -0.115 0 0
110 122 136 148 162 174 END -0.115 0 0
106 132 158 START 0 0 -0.265
106 132 158 END 0 0 -0.265
107 133 159 START 0 0 0.15
107 133 159 END 0 0 0.15
108 134 160 START 0 0 0.115
108 134 160 END 0 0 0.115
LOAD 1 LOADTYPE Dead  TITLE LOAD CASE 1
SELFWEIGHT Y -1 
FLOOR LOAD
YRANGE 1.2 7.2 FLOAD -4.75 GY
MEMBER LOAD
211 TO 228 230 231 233 TO 244 246 TO 252 254 TO 265 267 TO 287 289 290 292 -
293 TO 303 305 TO 311 313 TO 324 326 TO 328 388 TO 403 406 407 409 410 413 -
414 TO 428 431 432 434 435 UNI GY -12.75
329 TO 346 348 349 351 TO 362 364 TO 370 372 TO 383 385 TO 387 438 TO 453 -
456 457 459 460 UNI GY -6.135
FLOOR LOAD
_SUNK200 FLOAD -4 GY
_SC FLOAD 4.75 GY
MEMBER LOAD
230 254 289 313 348 372 UNI GY -13.08
JOINT LOAD
26 31 61 65 79 80 91 92 105 106 117 118 131 132 143 144 FY -60.225
LOAD 2 LOADTYPE Live  TITLE LIVE LOAD
FLOOR LOAD
YRANGE 1.2 7.2 FLOAD -2 GY
LOAD COMB 3 COMBINATION LOAD CASE 3
1 1.5 2 1.5 
PERFORM ANALYSIS
START CONCRETE DESIGN
CODE INDIAN
FC 30000 MEMB 104 TO 125 127 TO 151 153 TO 177 179 TO 181 198 TO 200 -
211 TO 228 230 231 233 TO 244 246 TO 252 254 TO 265 267 TO 287 289 290 292 -
293 TO 303 305 TO 311 313 TO 324 326 TO 346 348 349 351 TO 362 364 TO 370 -
372 TO 383 385 TO 403 406 407 409 410 413 TO 428 431 432 434 435 438 TO 453 -
456 457 459 460
FYMAIN 500000 MEMB 104 TO 125 127 TO 151 153 TO 177 179 TO 181 198 TO 200 -
211 TO 228 230 231 233 TO 244 246 TO 252 254 TO 265 267 TO 287 289 290 292 -
293 TO 303 305 TO 311 313 TO 324 326 TO 346 348 349 351 TO 362 364 TO 370 -
372 TO 383 385 TO 403 406 407 409 410 413 TO 428 431 432 434 435 438 TO 453 -
456 457 459 460
FYSEC 415000 MEMB 104 TO 125 127 TO 151 153 TO 177 179 TO 181 198 TO 200 211 -
212 TO 228 230 231 233 TO 244 246 TO 252 254 TO 265 267 TO 287 289 290 292 -
293 TO 303 305 TO 311 313 TO 324 326 TO 346 348 349 351 TO 362 364 TO 370 -
372 TO 383 385 TO 403 406 407 409 410 413 TO 428 431 432 434 435 438 TO 453 -
456 457 459 460
DESIGN BEAM 104 TO 125 127 TO 151 153 TO 177 179 TO 181 198 TO 200 -
211 TO 228 230 231 233 TO 244 246 TO 252 254 TO 265 267 TO 287 289 290 292 -
293 TO 303 305 TO 311 313 TO 324 326 TO 346 348 349 351 TO 362 364 TO 370 -
372 TO 383 385 TO 403 406 407 409 410 413 TO 428 431 432 434 435 438 TO 453 -
456 457 459 460
DESIGN COLUMN 104 TO 125 127 TO 151 153 TO 177 179 TO 181 198 TO 200 -
211 TO 228 230 231 233 TO 244 246 TO 252 254 TO 265 267 TO 287 289 290 292 -
293 TO 303 305 TO 311 313 TO 324 326 TO 346 348 349 351 TO 362 364 TO 370 -
372 TO 383 385 TO 403 406 407 409 410 413 TO 428 431 432 434 435 438 TO 453 -
456 457 459 460
CONCRETE TAKE
END CONCRETE DESIGN
FINISH
