STAAD TRUSS
START JOB INFORMATION
ENGINEER DATE 11-Mar-20
END JOB INFORMATION
INPUT WIDTH 79
UNIT METER KN
JOINT COORDINATES
1 0 0 0; 2 2 0 0; 3 4 0 0; 4 6 0 0; 5 8 0 0; 6 10 0 0; 7 12 0 0;
8 6 6 0; 10 2 2 0; 12 4 4 0; 13 8 4 0; 15 10 2 0; 16 0 0 2.5;
17 2 0 2.5; 18 4 0 2.5; 19 6 0 2.5; 20 8 0 2.5; 21 10 0 2.5;
22 12 0 2.5; 23 6 6 2.5; 24 2 2 2.5; 25 4 4 2.5; 26 8 4 2.5;
27 10 2 2.5; 28 0 0 5; 29 2 0 5; 30 4 0 5; 31 6 0 5; 32 8 0 5;
33 10 0 5; 34 12 0 5; 35 6 6 5; 36 2 2 5; 37 4 4 5; 38 8 4 5; 39 10 2 5;
40 0 0 7.5; 41 2 0 7.5; 42 4 0 7.5; 43 6 0 7.5; 44 8 0 7.5; 45 10 0 7.5;
46 12 0 7.5; 47 6 6 7.5; 48 2 2 7.5; 49 4 4 7.5; 50 8 4 7.5;
51 10 2 7.5; 52 0 0 10; 53 2 0 10; 54 4 0 10; 55 6 0 10; 56 8 0 10;
57 10 0 10; 58 12 0 10; 59 6 6 10; 60 2 2 10; 61 4 4 10; 62 8 4 10;
63 10 2 10; 64 0 0 12.5; 65 2 0 12.5; 66 4 0 12.5; 67 6 0 12.5;
68 8 0 12.5; 69 10 0 12.5; 70 12 0 12.5; 71 6 6 12.5; 72 2 2 12.5;
73 4 4 12.5; 74 8 4 12.5; 75 10 2 12.5; 76 0 0 15; 77 2 0 15; 78 4 0 15;
79 6 0 15; 80 8 0 15; 81 10 0 15; 82 12 0 15; 83 6 6 15; 84 2 2 15;
85 4 4 15; 86 8 4 15; 87 10 2 15; 88 0 -4 0; 89 12 -4 0; 90 0 -4 2.5;
91 12 -4 2.5; 92 0 -4 5; 93 12 -4 5; 94 0 -4 7.5; 95 12 -4 7.5;
96 0 -4 10; 97 12 -4 10; 98 0 -4 12.5; 99 12 -4 12.5; 100 0 -4 15;
101 12 -4 15;
MEMBER INCIDENCES
1 1 2; 2 2 3; 3 3 4; 4 4 5; 5 5 6; 6 6 7; 7 4 8; 9 8 13; 12 10 1;
13 3 10; 14 10 2; 18 12 8; 20 12 10; 21 12 3; 22 12 4; 27 15 7; 28 5 15;
29 15 6; 30 13 5; 31 15 13; 32 13 4; 33 1 16; 34 2 17; 35 3 18; 36 4 19;
37 5 20; 38 6 21; 39 7 22; 40 8 23; 41 10 24; 42 12 25; 43 13 26;
44 15 27; 45 16 17; 46 17 18; 47 18 19; 48 19 20; 49 20 21; 50 21 22;
51 19 23; 52 23 26; 53 24 16; 54 18 24; 55 24 17; 56 25 23; 57 25 24;
58 25 18; 59 25 19; 60 27 22; 61 20 27; 62 27 21; 63 26 20; 64 27 26;
65 26 19; 66 16 28; 67 17 29; 68 18 30; 69 19 31; 70 20 32; 71 21 33;
72 22 34; 73 23 35; 74 24 36; 75 25 37; 76 26 38; 77 27 39; 78 28 29;
79 29 30; 80 30 31; 81 31 32; 82 32 33; 83 33 34; 84 31 35; 85 35 38;
86 36 28; 87 30 36; 88 36 29; 89 37 35; 90 37 36; 91 37 30; 92 37 31;
93 39 34; 94 32 39; 95 39 33; 96 38 32; 97 39 38; 98 38 31; 99 28 40;
100 29 41; 101 30 42; 102 31 43; 103 32 44; 104 33 45; 105 34 46;
106 35 47; 107 36 48; 108 37 49; 109 38 50; 110 39 51; 111 40 41;
112 41 42; 113 42 43; 114 43 44; 115 44 45; 116 45 46; 117 43 47;
118 47 50; 119 48 40; 120 42 48; 121 48 41; 122 49 47; 123 49 48;
124 49 42; 125 49 43; 126 51 46; 127 44 51; 128 51 45; 129 50 44;
130 51 50; 131 50 43; 132 40 52; 133 41 53; 134 42 54; 135 43 55;
136 44 56; 137 45 57; 138 46 58; 139 47 59; 140 48 60; 141 49 61;
142 50 62; 143 51 63; 144 52 53; 145 53 54; 146 54 55; 147 55 56;
# ... 17 like lines cut
DEFINE MATERIAL START
ISOTROPIC STEEL
E 2.05e+008
POISSON 0.3
DENSITY 76.8195
ALPHA 1.2e-005
DAMP 0.03
TYPE STEEL
STRENGTH FY 253200 FU 407800 RY 1.5 RT 1.2
END DEFINE MATERIAL
MEMBER PROPERTY INDIAN
33 TO 44 66 TO 77 99 TO 110 132 TO 143 165 TO 176 198 TO 208 -
209 TABLE ST ISHB250
1 TO 6 9 12 18 20 27 31 45 TO 50 52 53 56 57 60 64 78 TO 83 85 86 89 -
90 93 97 111 TO 116 118 119 122 123 126 130 144 TO 149 151 152 155 -
156 159 163 177 TO 182 184 185 188 189 192 196 210 TO 215 217 218 -
221 222 225 229 231 TO 244 TABLE ST ISMC300H
7 13 14 21 22 28 TO 30 32 51 54 55 58 59 61 TO 63 65 84 87 88 91 92 -
94 TO 96 98 117 120 121 124 125 127 TO 129 131 150 153 154 157 158 -
160 TO 162 164 183 186 187 190 191 193 TO 195 197 216 219 220 223 -
224 226 TO 228 230 TABLE ST ISA110x110x10
CONSTANTS
MATERIAL STEEL ALL
SUPPORTS
88 TO 101 FIXED
LOAD 1 LOADTYPE Dead  TITLE Dead Load 
SELFWEIGHT Y -1 LIST ALL
JOINT LOAD
8 10 12 13 15 23 TO 27 35 TO 39 47 TO 51 59 TO 63 71 TO 75 83 TO 86 -
87 FY -10
1 7 16 22 28 34 40 46 52 58 64 70 76 82 FY -5
LOAD 2 LOADTYPE Live  TITLE Live Load 
JOINT LOAD
8 10 12 13 15 23 TO 27 35 TO 39 47 TO 51 59 TO 63 71 TO 75 83 TO 86 -
87 FY -6
1 7 16 22 28 34 40 46 52 58 64 70 76 82 FY -3
LOAD 3 LOADTYPE Wind  TITLE Wind Load 
JOINT LOAD
8 10 12 13 15 23 TO 27 35 TO 39 47 TO 51 59 TO 63 71 TO 75 83 TO 86 -
87 FX 10 FY 6
8 10 12 13 15 23 TO 27 35 TO 39 47 TO 51 59 TO 63 71 TO 75 83 TO 86 -
87 FX -10 FY 6
1 7 16 22 28 34 40 46 52 58 64 70 76 82 FX 5 FY 3
7 22 34 46 58 70 82 FX -5 FY 3
PERFORM ANALYSIS PRINT ALL
FINISH
