STAAD SPACE
START JOB INFORMATION
ENGINEER DATE 02-Mar-20
END JOB INFORMATION
INPUT WIDTH 79
UNIT METER KN
JOINT COORDINATES
2 5.77 0 0; 3 9.58 0 0; 4 9.58 0 3.95; 6 9.58 0 7.16; 7 9.58 0 11.42;
8 5.77 0 3.95; 12 5.77 0 11.42; 15 5.77 0 7.16; 18 0 0 7.16; 19 0 0 11.42;
20 3.35 0 11.42; 21 3.35 0 7.16; 22 0 0 1.445; 23 5.77 1.2 0; 24 9.58 1.2 0;
25 9.58 1.2 3.95; 26 9.58 1.2 7.16; 27 9.58 1.2 11.42; 28 5.77 1.2 3.95;
29 5.77 1.2 11.42; 30 5.77 1.2 7.16; 31 0 1.2 7.16; 32 0 1.2 11.42;
33 3.35 1.2 11.42; 34 3.35 1.2 7.16; 35 0 1.2 1.445; 36 5.77 4.2 0;
37 9.58 4.2 0; 38 9.58 4.2 3.95; 39 9.58 4.2 7.16; 40 9.58 4.2 11.42;
41 5.77 4.2 3.95; 42 5.77 4.2 11.42; 43 5.77 4.2 7.16; 44 0 4.2 7.16;
45 0 4.2 11.42; 46 3.35 4.2 11.42; 47 3.35 4.2 7.16; 48 0 4.2 1.445;
49 5.77 7.2 0; 50 9.58 7.2 0; 51 9.58 7.2 3.95; 52 9.58 7.2 7.16;
53 9.58 7.2 11.42; 54 5.77 7.2 3.95; 55 5.77 7.2 11.42; 56 5.77 7.2 7.16;
57 0 7.2 7.16; 58 0 7.2 11.42; 59 3.35 7.2 11.42; 60 3.35 7.2 7.16;
61 0 7.2 1.445; 62 0 1.2 0; 63 9.58 1.2 5.405; 64 6.87 1.2 3.95;
65 6.87 1.2 5.405; 66 6.87 1.2 7.16; 67 5.77 1.2 2.89; 68 0 1.2 2.89;
69 0 4.2 0; 70 9.58 4.2 5.405; 71 6.87 4.2 3.95; 72 6.87 4.2 5.405;
73 6.87 4.2 7.16; 74 5.77 4.2 2.89; 75 0 4.2 2.89; 76 0 7.2 0;
77 9.58 7.2 5.405; 78 6.87 7.2 3.95; 79 6.87 7.2 5.405; 80 6.87 7.2 7.16;
81 5.77 7.2 2.89; 82 0 7.2 2.89;
MEMBER INCIDENCES
32 2 23; 33 3 24; 34 4 25; 35 6 26; 36 7 27; 37 8 28; 38 12 29; 39 15 30;
40 18 31; 41 19 32; 42 20 33; 43 21 34; 44 22 35; 46 24 37; 47 25 38; 48 26 39;
49 27 40; 50 28 41; 51 29 42; 52 30 43; 53 31 44; 54 32 45; 55 33 46; 56 34 47;
57 35 48; 59 37 50; 60 38 51; 61 39 52; 62 40 53; 63 41 54; 64 42 55; 65 43 56;
66 44 57; 67 45 58; 68 46 59; 69 47 60; 70 48 61; 71 62 23; 72 23 24; 73 24 25;
74 25 63; 75 63 26; 76 26 27; 77 25 64; 78 28 67; 79 64 28; 80 63 65; 81 26 66;
82 66 65; 83 65 64; 84 27 29; 85 67 23; 86 67 68; 87 68 35; 88 29 30; 89 66 30;
90 68 31; 91 31 34; 92 31 32; 93 32 33; 94 34 30; 95 33 34; 96 33 29; 97 30 28;
98 35 62; 99 69 36; 100 36 37; 101 37 38; 102 38 70; 103 70 39; 104 39 40;
105 38 71; 106 41 74; 107 71 41; 108 70 72; 109 39 73; 110 73 72; 111 72 71;
112 40 42; 113 74 36; 114 74 75; 115 75 48; 116 42 43; 117 73 43; 118 75 44;
119 44 47; 120 44 45; 121 45 46; 122 47 43; 123 46 47; 124 46 42; 125 43 41;
126 48 69; 127 76 49; 128 49 50; 129 50 51; 130 51 77; 131 77 52; 132 52 53;
133 51 78; 134 54 81; 135 78 54; 136 77 79; 137 52 80; 138 80 79; 139 79 78;
140 53 55; 141 81 49; 142 81 82; 143 82 61; 144 55 56; 145 80 56; 146 82 57;
147 57 60; 148 57 58; 149 58 59; 150 60 56; 151 59 60; 152 59 55; 153 56 54;
154 61 76; 155 36 49; 156 23 36;
START GROUP DEFINITION
FLOOR
_SUNK200 102 103 105 108 TO 111
_SC 88 94 TO 96 116 122 TO 124 144 150 TO 152
END GROUP DEFINITION
DEFINE MATERIAL START
ISOTROPIC CONCRETE
E 2.17185e+007
POISSON 0.17
DENSITY 23.5616
ALPHA 1e-005
DAMP 0.05
TYPE CONCRETE
STRENGTH FCU 27579
END DEFINE MATERIAL
MEMBER PROPERTY AMERICAN
44 57 70 PRIS YD 0.45 ZD 0.3
32 TO 34 37 39 42 43 47 50 TO 52 55 56 59 60 63 TO 65 68 69 155 -
156 PRIS YD 0.45 ZD 0.3
35 114 143 PRIS YD 0.45 ZD 0.3
36 40 41 48 49 53 54 61 62 66 67 71 TO 77 79 TO 86 89 TO 98 101 TO 105 107 -
108 TO 113 117 TO 126 128 TO 133 135 TO 142 145 TO 154 PRIS YD 0.5 ZD 0.3
MEMBER PROPERTY AMERICAN
38 46 88 99 100 116 127 144 PRIS YD 0.6 ZD 0.3
MEMBER PROPERTY
87 PRIS YD 0.6 ZD 0.3
115 134 PRIS YD 0.7 ZD 0.3
78 106 PRIS YD 0.7 ZD 0.5
CONSTANTS
BETA 90 MEMB 32 TO 41 44 46 TO 54 57 59 TO 67 70 155 156
MATERIAL CONCRETE ALL
SUPPORTS
2 TO 4 6 TO 8 12 15 18 TO 22 FIXED
MEMBER OFFSET
36 40 41 49 53 54 62 66 67 START 0 0 -0.075
36 40 41 49 53 54 62 66 67 END 0 0 -0.075
42 55 68 START 0.115 0 0
42 55 68 END 0.115 0 0
34 37 38 47 50 51 60 63 64 START 0 0 -0.115
34 37 38 47 50 51 60 63 64 END 0 0 -0.115
43 56 69 START -0.115 0 0
43 56 69 END -0.115 0 0
33 39 46 52 59 65 START 0 0 0.115
33 39 46 52 59 65 END 0 0 0.115
35 48 61 START 0 0 0.075
35 48 61 END 0 0 0.075
LOAD 1 LOADTYPE Dead  TITLE DEAD LOAD
SELFWEIGHT Y -1 
FLOOR LOAD
YRANGE 1.2 7.2 FLOAD -4.75 GY
MEMBER LOAD
71 TO 126 UNI GY -16.2
MEMBER LOAD
127 TO 154 UNI GY -6.375
FLOOR LOAD
_SUNK200 FLOAD -4 GY
_SC FLOAD 4.75 GY
MEMBER LOAD
88 95 116 123 144 151 UNI GY -17.02
JOINT LOAD
12 15 20 21 29 30 33 34 42 43 46 47 55 56 59 60 FY -30
LOAD 2 LOADTYPE Live  TITLE LIVE LOAD
FLOOR LOAD
YRANGE 1.2 7.2 FLOAD -2 GY
LOAD COMB 3 COMBINATION LOAD CASE 3
1 1.5 2 1.5 
PERFORM ANALYSIS
START CONCRETE DESIGN
CODE INDIAN
FC 30000 MEMB 33 TO 44 46 TO 57 59 TO 154
FYMAIN 500000 MEMB 33 TO 44 46 TO 57 59 TO 154
FYSEC 250000 MEMB 33 TO 44 46 TO 57 59 TO 154
DESIGN BEAM 33 TO 44 46 TO 57 59 TO 154
DESIGN COLUMN 33 TO 44 46 TO 57 59 TO 154
CONCRETE TAKE
END CONCRETE DESIGN
FINISH
