STAAD SPACE
START JOB INFORMATION
ENGINEER DATE 25-Feb-20
END JOB INFORMATION
INPUT WIDTH 79
UNIT METER KN
JOINT COORDINATES
51 0 1.2 1.84; 52 3.34 1.2 0.55; 53 6.04 1.2 0.55; 54 0 1.2 5.96;
55 3.34 1.2 5.96; 56 9.22 1.2 1; 57 3.34 1.2 3.7; 58 0 1.2 8.51;
59 4.69 1.2 7.235; 60 7.92 1.2 3.7; 61 7.92 1.2 7.235; 62 0.3 1.2 11.21;
63 3.6 1.2 8.51; 64 3.6 1.2 11.21; 65 7.92 1.2 11.21; 66 0.3 1.2 14.91;
67 9.22 1.2 13.91; 68 3.6 1.2 14.91; 69 6.4 1.2 14.91; 71 6.04 1.2 3.7;
138 5 1.2 11.21; 139 0 2.4 1.84; 140 3.34 2.4 0.55; 141 6.04 2.4 0.55;
142 0 2.4 5.96; 143 3.34 2.4 5.96; 144 9.22 2.4 1; 145 3.34 2.4 3.7;
146 0 2.4 8.51; 147 4.69 2.4 7.235; 148 7.92 2.4 3.7; 149 7.92 2.4 7.235;
150 0.3 2.4 11.21; 151 3.6 2.4 8.51; 152 3.6 2.4 11.21; 153 7.92 2.4 11.21;
154 0.3 2.4 14.91; 155 9.22 2.4 13.91; 156 3.6 2.4 14.91; 157 6.4 2.4 14.91;
158 6.04 2.4 3.7; 159 5 2.4 11.21; 160 0 5.4 1.84; 161 3.34 5.4 0.55;
162 6.04 5.4 0.55; 163 0 5.4 5.96; 164 3.34 5.4 5.96; 165 9.22 5.4 1;
166 3.34 5.4 3.7; 167 0 5.4 8.51; 168 4.69 5.4 7.235; 169 7.92 5.4 3.7;
170 7.92 5.4 7.235; 171 0.3 5.4 11.21; 172 3.6 5.4 8.51; 173 3.6 5.4 11.21;
174 7.92 5.4 11.21; 175 0.3 5.4 14.91; 176 9.22 5.4 13.91; 177 3.6 5.4 14.91;
178 6.4 5.4 14.91; 179 6.04 5.4 3.7; 180 5 5.4 11.21; 181 0 8.4 1.84;
182 3.34 8.4 0.55; 183 6.04 8.4 0.55; 184 0 8.4 5.96; 185 3.34 8.4 5.96;
186 9.22 8.4 1; 187 3.34 8.4 3.7; 188 0 8.4 8.51; 189 4.69 8.4 7.235;
190 7.92 8.4 3.7; 191 7.92 8.4 7.235; 192 0.3 8.4 11.21; 193 3.6 8.4 8.51;
194 3.6 8.4 11.21; 195 7.92 8.4 11.21; 196 0.3 8.4 14.91; 197 9.22 8.4 13.91;
# ... 17 like lines cut
MEMBER INCIDENCES
214 51 139; 215 52 140; 216 53 141; 217 54 142; 218 55 143; 219 56 144;
220 57 145; 221 58 146; 222 59 147; 223 60 148; 224 61 149; 225 62 150;
226 63 151; 227 64 152; 228 65 153; 229 66 154; 230 67 155; 231 68 156;
232 69 157; 233 71 158; 234 138 159; 235 139 160; 236 140 161; 237 141 162;
238 142 163; 239 143 164; 240 144 165; 241 145 166; 242 146 167; 243 147 168;
244 148 169; 245 149 170; 246 150 171; 247 151 172; 248 152 173; 249 153 174;
250 154 175; 251 155 176; 252 156 177; 253 157 178; 254 158 179; 255 159 180;
256 160 181; 257 161 182; 258 162 183; 259 163 184; 260 164 185; 261 165 186;
262 166 187; 263 167 188; 264 168 189; 265 169 190; 266 170 191; 267 171 192;
268 172 193; 269 173 194; 270 174 195; 271 175 196; 272 176 197; 273 177 198;
274 178 199; 275 179 200; 276 180 201; 277 203 204; 278 139 205; 279 140 205;
280 140 221; 281 139 142; 282 206 222; 283 204 144; 284 144 207; 285 144 208;
286 143 145; 287 208 148; 288 203 141; 289 142 143; 290 143 209; 291 209 147;
292 146 212; 293 208 211; 294 147 210; 295 147 149; 296 148 158; 297 149 211;
298 148 149; 299 211 213; 300 212 150; 301 151 210; 302 150 152; 303 152 151;
304 152 159; 305 153 213; 306 153 149; 307 150 154; 308 213 155; 309 155 214;
310 154 156; 311 156 215; 312 157 214; 313 156 216; 314 215 217; 315 157 219;
316 216 217; 317 155 219; 318 153 202; 319 146 142; 320 158 145; 321 158 220;
322 221 222; 323 224 225; 324 160 226; 325 161 226; 326 161 242; 327 160 163;
328 227 243; 329 225 165; 330 165 228; 331 165 229; 332 164 166; 333 229 169;
# ... 20 like lines cut
START GROUP DEFINITION
FLOOR
_SUNK200 325 326 328 357 359 TO 362 368 434 437 438 457 TO 459 461 469
_SC 289 TO 292 294 301 319 335 TO 338 340 347 365 381 TO 384 386 393 411 420 -
433 446
END GROUP DEFINITION
DEFINE MATERIAL START
ISOTROPIC CONCRETE
E 2.17185e+007
POISSON 0.17
DENSITY 23.5616
ALPHA 1e-005
DAMP 0.05
TYPE CONCRETE
STRENGTH FCU 27579
END DEFINE MATERIAL
MEMBER PROPERTY AMERICAN
214 TO 276 PRIS YD 0.5 ZD 0.3
277 TO 414 420 TO 425 433 TO 438 446 TO 472 PRIS YD 0.4 ZD 0.3
CONSTANTS
BETA 90 MEMB 215 216 219 220 230 236 237 240 241 251 257 258 261 262 272
MATERIAL CONCRETE ALL
SUPPORTS
51 TO 69 71 138 FIXED
MEMBER OFFSET
214 217 218 221 222 225 227 229 231 232 235 238 239 242 243 246 248 250 252 -
253 256 259 260 263 264 267 269 271 273 274 START 0.1 0 0
214 217 218 221 222 225 227 229 231 232 235 238 239 242 243 246 248 250 252 -
253 256 259 260 263 264 267 269 271 273 274 END 0.1 0 0
230 251 272 START 0 0 -0.1
230 251 272 END 0 0 -0.1
223 224 226 228 233 244 245 247 249 254 265 266 268 270 275 START -0.1 0 0
223 224 226 228 233 244 245 247 249 254 265 266 268 270 275 END -0.1 0 0
215 216 219 220 236 237 240 241 257 258 261 262 START 0 0 0.1
215 216 219 220 236 237 240 241 257 258 261 262 END 0 0 0.1
DEFINE 1893 LOAD
ZONE 0.16 RF 5 I 1.5 SS 1 DM 0.05
SELFWEIGHT 1 
MEMBER WEIGHT
277 TO 368 420 TO 425 433 TO 438 452 TO 461 467 TO 470 UNI -16.8 1.2 7.2
369 TO 414 446 TO 451 462 TO 466 471 472 UNI -8.4 1.2 7.2
FLOOR WEIGHT
YRANGE 0 0 FLOAD -4.75 XRANGE 1.2 7.2 ZRANGE 0 0
LOAD 1 LOADTYPE Seismic  TITLE EQX
1893 LOAD X 1
LOAD 2 LOADTYPE Seismic  TITLE EQZ
1893 LOAD Z 1
LOAD 3 LOADTYPE Dead  TITLE DEAD LOAD
SELFWEIGHT Y -1 
FLOOR LOAD
YRANGE 2.4 8.4 FLOAD -4.75 GY
MEMBER LOAD
277 TO 368 420 TO 425 433 TO 438 452 TO 461 467 TO 470 UNI GY -16.8
369 TO 414 446 TO 451 462 TO 466 471 472 UNI GY -8.4
FLOOR LOAD
_SUNK200 FLOAD -4 GY
FLOOR LOAD
_SC FLOAD 4.75 GY
MEMBER LOAD
291 294 319 337 340 365 383 386 411 UNI GY -18.76
JOINT LOAD
54 55 58 63 142 143 146 151 163 164 167 172 184 185 188 193 FY -30
LOAD 4 LOADTYPE Live  TITLE Live Load
FLOOR LOAD
YRANGE 2.4 8.4 FLOAD -2 GY
LOAD COMB 5 COMBINATION LOAD CASE 5
3 1.0 4 0.25 
PERFORM ANALYSIS
START CONCRETE DESIGN
CODE INDIAN
FC 30000 ALL
FYMAIN 500000 ALL
FYSEC 250000 ALL
DESIGN BEAM 214 TO 414 420 TO 425 433 TO 438 446 TO 472
DESIGN COLUMN 214 TO 414 420 TO 425 433 TO 438 446 TO 472
CONCRETE TAKE
END CONCRETE DESIGN
FINISH
