STAAD SPACE
START JOB INFORMATION
ENGINEER DATE 12-Mar-20
END JOB INFORMATION
INPUT WIDTH 79
UNIT METER KN
JOINT COORDINATES
1 0 0 0; 2 3 0 0; 3 6 0 0; 4 9 0 0; 5 12 0 0; 6 0 3.6 0; 7 3 3.6 0; 8 6 3.6 0;
9 9 3.6 0; 10 12 3.6 0; 11 0 7.2 0; 12 3 7.2 0; 13 6 7.2 0; 14 9 7.2 0;
15 12 7.2 0; 16 0 10.8 0; 17 3 10.8 0; 18 6 10.8 0; 19 9 10.8 0; 20 12 10.8 0;
21 0 14.4 0; 22 3 14.4 0; 23 6 14.4 0; 24 9 14.4 0; 25 12 14.4 0; 26 0 18 0;
27 3 18 0; 28 6 18 0; 29 9 18 0; 30 12 18 0; 31 0 0 5; 32 3 0 5; 33 6 0 5;
34 9 0 5; 35 12 0 5; 36 0 3.6 5; 37 3 3.6 5; 38 6 3.6 5; 39 9 3.6 5;
40 12 3.6 5; 41 0 7.2 5; 42 3 7.2 5; 43 6 7.2 5; 44 9 7.2 5; 45 12 7.2 5;
46 0 10.8 5; 47 3 10.8 5; 48 6 10.8 5; 49 9 10.8 5; 50 12 10.8 5; 51 0 14.4 5;
52 3 14.4 5; 53 6 14.4 5; 54 9 14.4 5; 55 12 14.4 5; 56 0 18 5; 57 3 18 5;
58 6 18 5; 59 9 18 5; 60 12 18 5; 61 0 0 10; 62 3 0 10; 63 6 0 10; 64 9 0 10;
65 12 0 10; 66 0 3.6 10; 67 3 3.6 10; 68 6 3.6 10; 69 9 3.6 10; 70 12 3.6 10;
71 0 7.2 10; 72 3 7.2 10; 73 6 7.2 10; 74 9 7.2 10; 75 12 7.2 10; 76 0 10.8 10;
77 3 10.8 10; 78 6 10.8 10; 79 9 10.8 10; 80 12 10.8 10; 81 0 14.4 10;
82 3 14.4 10; 83 6 14.4 10; 84 9 14.4 10; 85 12 14.4 10; 86 0 18 10;
87 3 18 10; 88 6 18 10; 89 9 18 10; 90 12 18 10; 91 0 0 15; 92 3 0 15;
93 6 0 15; 94 9 0 15; 95 12 0 15; 96 0 3.6 15; 97 3 3.6 15; 98 6 3.6 15;
99 9 3.6 15; 100 12 3.6 15; 101 0 7.2 15; 102 3 7.2 15; 103 6 7.2 15;
104 9 7.2 15; 105 12 7.2 15; 106 0 10.8 15; 107 3 10.8 15; 108 6 10.8 15;
109 9 10.8 15; 110 12 10.8 15; 111 0 14.4 15; 112 3 14.4 15; 113 6 14.4 15;
114 9 14.4 15; 115 12 14.4 15; 116 0 18 15; 117 3 18 15; 118 6 18 15;
119 9 18 15; 120 12 18 15;
MEMBER INCIDENCES
1 6 7; 2 7 8; 3 8 9; 4 9 10; 5 11 12; 6 12 13; 7 13 14; 8 14 15; 9 16 17;
10 17 18; 11 18 19; 12 19 20; 13 21 22; 14 22 23; 15 23 24; 16 24 25; 17 26 27;
18 27 28; 19 28 29; 20 29 30; 21 1 6; 22 2 7; 23 3 8; 24 4 9; 25 5 10; 26 6 11;
27 7 12; 28 8 13; 29 9 14; 30 10 15; 31 11 16; 32 12 17; 33 13 18; 34 14 19;
35 15 20; 36 16 21; 37 17 22; 38 18 23; 39 19 24; 40 20 25; 41 21 26; 42 22 27;
43 23 28; 44 24 29; 45 25 30; 46 36 37; 47 37 38; 48 38 39; 49 39 40; 50 41 42;
51 42 43; 52 43 44; 53 44 45; 54 46 47; 55 47 48; 56 48 49; 57 49 50; 58 51 52;
59 52 53; 60 53 54; 61 54 55; 62 56 57; 63 57 58; 64 58 59; 65 59 60; 66 31 36;
67 32 37; 68 33 38; 69 34 39; 70 35 40; 71 36 41; 72 37 42; 73 38 43; 74 39 44;
75 40 45; 76 41 46; 77 42 47; 78 43 48; 79 44 49; 80 45 50; 81 46 51; 82 47 52;
83 48 53; 84 49 54; 85 50 55; 86 51 56; 87 52 57; 88 53 58; 89 54 59; 90 55 60;
91 66 67; 92 67 68; 93 68 69; 94 69 70; 95 71 72; 96 72 73; 97 73 74; 98 74 75;
99 76 77; 100 77 78; 101 78 79; 102 79 80; 103 81 82; 104 82 83; 105 83 84;
106 84 85; 107 86 87; 108 87 88; 109 88 89; 110 89 90; 111 61 66; 112 62 67;
113 63 68; 114 64 69; 115 65 70; 116 66 71; 117 67 72; 118 68 73; 119 69 74;
120 70 75; 121 71 76; 122 72 77; 123 73 78; 124 74 79; 125 75 80; 126 76 81;
127 77 82; 128 78 83; 129 79 84; 130 80 85; 131 81 86; 132 82 87; 133 83 88;
134 84 89; 135 85 90; 136 96 97; 137 97 98; 138 98 99; 139 99 100; 140 101 102;
141 102 103; 142 103 104; 143 104 105; 144 106 107; 145 107 108; 146 108 109;
147 109 110; 148 111 112; 149 112 113; 150 113 114; 151 114 115; 152 116 117;
# ... 16 like lines cut
START GROUP DEFINITION
FLOOR
_SC 49 53 57 61 65 94 98 102 106 110 209 210 214 215 219 220 224 225 229 230
END GROUP DEFINITION
DEFINE MATERIAL START
ISOTROPIC CONCRETE
E 2.17185e+007
POISSON 0.17
DENSITY 23.5616
ALPHA 1e-005
DAMP 0.05
TYPE CONCRETE
STRENGTH FCU 27579
END DEFINE MATERIAL
MEMBER PROPERTY AMERICAN
21 TO 45 66 TO 90 111 TO 135 156 TO 180 PRIS YD 0.6 ZD 0.3
1 TO 20 46 TO 65 91 TO 110 136 TO 155 181 TO 255 PRIS YD 0.45 ZD 0.3
CONSTANTS
BETA 90 MEMB 67 69 72 74 77 79 82 84 87 89 112 114 117 119 122 124 127 129 -
132 134
MATERIAL CONCRETE ALL
SUPPORTS
1 TO 5 31 TO 35 61 TO 65 91 TO 95 FIXED
MEMBER OFFSET
21 TO 24 26 TO 29 31 TO 34 36 TO 39 41 TO 44 66 68 71 73 76 78 81 83 86 88 -
111 113 116 118 121 123 126 128 131 133 156 TO 159 161 TO 164 166 TO 169 -
171 TO 174 176 TO 179 START 0.15 0 0
21 TO 24 26 TO 29 31 TO 34 36 TO 39 41 TO 44 66 68 71 73 76 78 81 83 86 88 -
111 113 116 118 121 123 126 128 131 133 156 TO 159 161 TO 164 166 TO 169 -
171 TO 174 176 TO 179 END 0.15 0 0
25 30 35 40 45 70 75 80 85 90 115 120 125 130 135 160 165 170 175 -
180 START -0.15 0 0
25 30 35 40 45 70 75 80 85 90 115 120 125 130 135 160 165 170 175 -
180 END -0.15 0 0
67 69 72 74 77 79 82 84 87 89 112 114 117 119 122 124 127 129 132 -
134 START 0 0 -0.15
67 69 72 74 77 79 82 84 87 89 112 114 117 119 122 124 127 129 132 -
134 END 0 0 -0.15
DEFINE 1893 LOAD
ZONE 0.16 RF 5 I 1.2 SS 2 DM 0.05
SELFWEIGHT 1 
MEMBER WEIGHT
1 TO 16 46 TO 61 91 TO 106 136 TO 151 181 TO 200 206 TO 225 231 TO 249 -
250 UNI -15.8 3 18
17 TO 20 62 TO 65 107 TO 110 152 TO 155 201 TO 205 226 TO 230 251 TO 254 -
255 UNI -7.5 3.6 18
FLOOR WEIGHT
YRANGE 3 18 FLOAD -4.75
LOAD 1 LOADTYPE Seismic  TITLE EQX
1893 LOAD X 1
LOAD 2 LOADTYPE Seismic  TITLE EQZ
1893 LOAD Z 1
LOAD 3 LOADTYPE Dead  TITLE Dead Load 
SELFWEIGHT Y -1 LIST ALL
FLOOR LOAD
YRANGE 3 18 FLOAD -4.75 GY
MEMBER LOAD
1 TO 16 46 TO 61 91 TO 106 136 TO 151 181 TO 200 206 TO 225 231 TO 249 -
250 UNI GY -15.8
17 TO 20 62 TO 65 107 TO 110 152 TO 155 201 TO 205 226 TO 230 251 TO 254 -
255 UNI GY -7.5
FLOOR LOAD
_SC FLOAD 4.75 GY
MEMBER LOAD
49 53 57 61 65 94 98 102 106 110 UNI GY -20
JOINT LOAD
34 35 39 40 44 45 49 50 54 55 59 60 64 65 69 70 74 75 79 80 84 85 89 90 FY -60
LOAD 4 LOADTYPE Live  TITLE Live Load 
FLOOR LOAD
YRANGE 3 18 FLOAD -4.75 GY
LOAD COMB 5 COMBINATION LOAD CASE 5
3 1.0 4 0.25 
PERFORM ANALYSIS PRINT ALL
FINISH
