STAAD TRUSS
START JOB INFORMATION
ENGINEER DATE 11-Mar-20
END JOB INFORMATION
INPUT WIDTH 79
UNIT METER KN
JOINT COORDINATES
1 0 0 0; 2 3 0 0; 3 6 0 0; 4 9 0 0; 5 12 0 0; 6 3 6 0; 7 6 6 0; 8 9 6 0;
9 0 0 1.25; 10 3 0 1.25; 11 6 0 1.25; 12 9 0 1.25; 13 12 0 1.25; 14 3 6 1.25;
15 6 6 1.25; 16 9 6 1.25; 17 0 0 2.5; 18 3 0 2.5; 19 6 0 2.5; 20 9 0 2.5;
21 12 0 2.5; 22 3 6 2.5; 23 6 6 2.5; 24 9 6 2.5; 25 0 0 3.75; 26 3 0 3.75;
27 6 0 3.75; 28 9 0 3.75; 29 12 0 3.75; 30 3 6 3.75; 31 6 6 3.75; 32 9 6 3.75;
33 0 0 5; 34 3 0 5; 35 6 0 5; 36 9 0 5; 37 12 0 5; 38 3 6 5; 39 6 6 5;
40 9 6 5;
MEMBER INCIDENCES
1 1 2; 2 2 3; 3 3 4; 4 4 5; 5 6 7; 6 7 8; 7 2 6; 8 3 7; 9 4 8; 10 1 6; 11 5 8;
12 2 7; 13 4 7; 14 9 10; 15 10 11; 16 11 12; 17 12 13; 18 14 15; 19 15 16;
20 10 14; 21 11 15; 22 12 16; 23 9 14; 24 13 16; 25 10 15; 26 12 15; 27 17 18;
28 18 19; 29 19 20; 30 20 21; 31 22 23; 32 23 24; 33 18 22; 34 19 23; 35 20 24;
36 17 22; 37 21 24; 38 18 23; 39 20 23; 40 25 26; 41 26 27; 42 27 28; 43 28 29;
44 30 31; 45 31 32; 46 26 30; 47 27 31; 48 28 32; 49 25 30; 50 29 32; 51 26 31;
52 28 31; 53 33 34; 54 34 35; 55 35 36; 56 36 37; 57 38 39; 58 39 40; 59 34 38;
60 35 39; 61 36 40; 62 33 38; 63 37 40; 64 34 39; 65 36 39; 66 1 9; 67 2 10;
68 3 11; 69 4 12; 70 5 13; 71 6 14; 72 7 15; 73 8 16; 74 9 17; 75 10 18;
76 11 19; 77 12 20; 78 13 21; 79 14 22; 80 15 23; 81 16 24; 82 17 25; 83 18 26;
84 19 27; 85 20 28; 86 21 29; 87 22 30; 88 23 31; 89 24 32; 90 25 33; 91 26 34;
92 27 35; 93 28 36; 94 29 37; 95 30 38; 96 31 39; 97 32 40;
DEFINE MATERIAL START
ISOTROPIC STEEL
E 2.05e+008
POISSON 0.3
DENSITY 76.8195
ALPHA 1.2e-005
DAMP 0.03
TYPE STEEL
STRENGTH FY 253200 FU 407800 RY 1.5 RT 1.2
END DEFINE MATERIAL
MEMBER PROPERTY INDIAN
66 TO 97 TABLE ST ISHB225H
1 TO 6 10 11 14 TO 19 23 24 27 TO 32 36 37 40 TO 45 49 50 53 TO 58 62 -
63 TABLE ST ISMC300H
7 TO 9 12 13 20 TO 22 25 26 33 TO 35 38 39 46 TO 48 51 52 59 TO 61 64 -
65 TABLE ST ISA100X100X10
CONSTANTS
MATERIAL STEEL ALL
SUPPORTS
1 9 17 25 33 FIXED
5 13 21 29 37 PINNED
LOAD 1 LOADTYPE Dead  TITLE LOAD CASE 1
SELFWEIGHT Y -1 
JOINT LOAD
6 TO 8 14 TO 16 22 TO 24 30 TO 32 38 TO 40 FY -8.66
1 5 9 13 17 21 25 29 33 37 FY -4.33
LOAD 2 LOADTYPE Live  TITLE LL
JOINT LOAD
6 TO 8 14 TO 16 22 TO 24 30 TO 32 38 TO 40 FY -5
1 5 9 13 17 21 25 29 33 37 FY -2.5
LOAD 3 LOADTYPE Wind  TITLE LOAD CASE 3
JOINT LOAD
6 TO 8 14 TO 16 22 TO 24 30 TO 32 38 TO 40 FX 8.66 FY 5
6 TO 8 14 TO 16 22 TO 24 30 TO 32 38 TO 40 FX -8.66 FY 5
1 5 9 13 17 21 25 29 33 37 FX 4.33 FY 2.5
1 5 9 13 17 21 25 29 33 37 FX -4.33 FY 2.5
PERFORM ANALYSIS PRINT ALL
FINISH
